Version 4
SHEET 1 1672 1268
WIRE 928 64 864 64
WIRE 1072 64 1024 64
WIRE 288 112 208 112
WIRE 288 128 288 112
WIRE 976 192 976 144
WIRE 976 192 896 192
WIRE 288 208 288 192
WIRE -304 224 -416 224
WIRE 96 224 -176 224
WIRE 0 240 -16 240
WIRE 96 240 96 224
WIRE 96 240 64 240
WIRE 128 240 96 240
WIRE 208 240 208 112
WIRE 208 240 192 240
WIRE 224 240 208 240
WIRE -416 256 -416 224
WIRE -304 256 -304 224
WIRE -176 256 -176 224
WIRE -16 304 -16 240
WIRE -16 304 -48 304
WIRE 224 304 224 240
WIRE 256 304 224 304
WIRE 304 304 256 304
WIRE 512 304 384 304
WIRE 576 304 512 304
WIRE 864 304 864 64
WIRE 864 304 672 304
WIRE 928 304 864 304
WIRE 1072 304 1072 64
WIRE 1072 304 1024 304
WIRE 1104 304 1072 304
WIRE 1200 304 1104 304
WIRE -48 320 -48 304
WIRE -16 352 -16 304
WIRE 0 352 -16 352
WIRE 96 352 64 352
WIRE 128 352 96 352
WIRE 224 352 224 304
WIRE 224 352 192 352
WIRE 1200 352 1200 304
WIRE -416 368 -416 336
WIRE -304 368 -304 336
WIRE -304 368 -416 368
WIRE 1104 368 1104 304
WIRE -176 384 -176 336
WIRE 96 384 96 352
WIRE 96 384 -176 384
WIRE 256 400 256 304
WIRE 512 448 512 304
WIRE 512 448 320 448
WIRE 1104 480 1104 432
WIRE 1200 480 1200 432
WIRE 624 512 624 384
WIRE 896 512 896 192
WIRE 896 512 624 512
WIRE 976 512 976 384
WIRE 976 512 896 512
WIRE 256 528 256 496
WIRE 624 528 624 512
WIRE 624 528 256 528
WIRE 624 544 624 528
WIRE 624 656 624 624
FLAG 1200 480 0
FLAG 1104 480 0
FLAG -48 320 0
FLAG 624 656 0
FLAG 1104 304 D
FLAG 288 208 0
SYMBOL res 400 288 R90
WINDOW 0 0 56 VBottom 2
WINDOW 3 32 56 VTop 2
SYMATTR InstName Rsense
SYMATTR Value 80m
SYMBOL res 1184 336 R0
SYMATTR InstName Rload
SYMATTR Value 20
SYMBOL pnp 320 496 R180
SYMATTR InstName Q1
SYMATTR Value BC857C
SYMBOL cap 1088 368 R0
SYMATTR InstName C1
SYMATTR Value 40m
SYMATTR SpiceLine Rser=17.5m
SYMBOL res 608 528 R0
SYMATTR InstName R1
SYMATTR Value 30k
SYMBOL voltage -416 240 M0
SYMATTR InstName V2
SYMATTR Value SINE(0 325 60)
SYMBOL ind2 -320 240 R0
SYMATTR InstName Lp
SYMATTR Value 36.6
SYMATTR Type ind
SYMATTR SpiceLine Rser=20
SYMBOL ind2 -192 240 R0
SYMATTR InstName Ls
SYMATTR Value 1
SYMATTR Type ind
SYMBOL diode 0 256 R270
WINDOW 0 32 32 VTop 2
WINDOW 3 0 32 VBottom 2
SYMATTR InstName D1
SYMBOL diode 128 256 R270
WINDOW 0 32 32 VTop 2
WINDOW 3 0 32 VBottom 2
SYMATTR InstName D2
SYMBOL diode 0 368 R270
WINDOW 0 32 32 VTop 2
WINDOW 3 0 32 VBottom 2
SYMATTR InstName D3
SYMBOL diode 128 368 R270
WINDOW 0 32 32 VTop 2
WINDOW 3 0 32 VBottom 2
SYMATTR InstName D4
SYMBOL EXTRA\\IRF\\PMOSFET\\irfp9140n 976 304 R270
WINDOW 0 45 -27 VRight 0
WINDOW 3 35 -28 VRight 0
SYMATTR InstName U1
SYMBOL EXTRA\\IRF\\PMOSFET\\irfp9140n 976 64 R270
WINDOW 0 43 -25 VRight 0
WINDOW 3 35 -26 VRight 0
SYMATTR InstName U2
SYMBOL EXTRA\\IRF\\PMOSFET\\irfp9140n 624 304 M270
WINDOW 0 42 30 VLeft 0
WINDOW 3 34 31 VLeft 0
SYMATTR InstName U3
SYMBOL cap 272 128 R0
SYMATTR InstName C3
SYMATTR Value 100n
TEXT -520 576 Left 2 !.tran 5 startup
TEXT -320 424 Left 2 !K1 Lp Ls 0.999
